# Example "data.mnc" file
 &MNC_01
 monitor_mnc=.FALSE.,
 mnc_use_outdir=.TRUE.,
 mnc_outdir_str='dic_budget_',
 &

